Version 4
SHEET 1 2244 1472
WIRE 112 -16 80 -16
WIRE 224 -16 192 -16
WIRE -608 48 -720 48
WIRE -368 48 -608 48
WIRE -256 48 -368 48
WIRE -208 48 -256 48
WIRE -64 48 -128 48
WIRE 16 48 16 -16
WIRE 16 48 -32 48
WIRE 80 48 16 48
WIRE 224 48 224 -16
WIRE 224 48 144 48
WIRE 288 48 224 48
WIRE 416 48 368 48
WIRE 528 48 528 32
WIRE 528 48 416 48
WIRE 672 48 528 48
WIRE -64 64 -64 48
WIRE -32 64 -32 48
WIRE 528 64 528 48
WIRE 672 64 672 48
WIRE -816 80 -816 64
WIRE -720 80 -720 48
WIRE -608 80 -608 48
WIRE -368 80 -368 48
WIRE -256 80 -256 48
WIRE 224 80 224 48
WIRE 416 80 416 48
WIRE -720 176 -720 160
WIRE -608 176 -608 144
WIRE -608 176 -720 176
WIRE -32 176 -32 144
WIRE 80 176 -32 176
WIRE 224 176 224 144
WIRE 224 176 160 176
WIRE 416 176 416 144
WIRE 416 176 224 176
WIRE 528 176 528 144
WIRE 528 176 416 176
WIRE 672 176 672 144
WIRE 704 176 672 176
WIRE 976 176 896 176
WIRE -816 192 -816 160
WIRE -720 192 -720 176
WIRE -368 192 -368 160
WIRE -304 192 -368 192
WIRE -256 192 -256 144
WIRE -256 192 -304 192
WIRE 224 192 224 176
WIRE -304 240 -304 192
WIRE 704 272 672 272
WIRE 928 272 896 272
WIRE 1024 272 928 272
WIRE 672 304 672 272
WIRE 928 304 928 272
WIRE 1024 304 1024 272
WIRE -304 336 -304 304
WIRE -64 336 -64 144
WIRE -64 336 -304 336
WIRE 96 336 -64 336
WIRE -64 368 -64 336
WIRE 96 368 96 336
WIRE -848 384 -880 384
WIRE -592 384 -624 384
WIRE -880 400 -880 384
WIRE 672 400 672 368
WIRE 1024 400 1024 384
WIRE 1104 400 1024 400
WIRE 928 416 928 384
WIRE 1024 416 1024 400
WIRE -976 432 -1040 432
WIRE -880 432 -976 432
WIRE -1040 448 -1040 432
WIRE -880 448 -880 432
WIRE -848 448 -880 448
WIRE -592 448 -624 448
WIRE -256 448 -272 448
WIRE -144 448 -176 448
WIRE -112 448 -144 448
WIRE -144 480 -144 448
WIRE 96 480 96 448
WIRE -848 512 -880 512
WIRE -592 512 -624 512
WIRE -1040 528 -1040 512
WIRE -1040 528 -1104 528
WIRE -976 528 -976 512
WIRE -976 528 -1040 528
WIRE -880 528 -880 512
WIRE -880 528 -976 528
WIRE 1024 528 1024 496
WIRE -64 560 -64 464
WIRE 96 560 96 544
WIRE 96 560 -64 560
WIRE -912 576 -960 576
WIRE -864 576 -912 576
WIRE -848 576 -864 576
WIRE -608 576 -624 576
WIRE -528 576 -608 576
WIRE -144 576 -144 560
WIRE -912 592 -912 576
WIRE -528 592 -528 576
WIRE -64 624 -64 560
WIRE 0 624 -64 624
WIRE 144 624 80 624
WIRE 240 624 144 624
WIRE 288 624 240 624
WIRE -64 640 -64 624
WIRE 1024 640 1024 608
WIRE 144 656 144 624
WIRE 240 656 240 624
WIRE -912 688 -912 656
WIRE -864 688 -864 576
WIRE -784 688 -864 688
WIRE -608 688 -608 576
WIRE -608 688 -704 688
WIRE -528 688 -528 656
WIRE -64 736 -64 720
WIRE 144 736 144 720
WIRE 240 736 240 720
FLAG -592 512 Isense
FLAG -960 576 Reference
FLAG -592 448 Output
FLAG -144 576 0
FLAG 1104 400 Feedback
FLAG -720 192 0
FLAG 224 192 0
FLAG 528 32 Vout
FLAG -64 736 0
FLAG 144 736 0
FLAG -272 448 Output
FLAG -912 688 0
FLAG -528 688 0
FLAG -816 64 Vcc
FLAG -816 192 0
FLAG -592 384 Vcc
FLAG -880 400 0
FLAG -1104 528 Feedback
FLAG 976 176 Reference
FLAG 672 400 0
FLAG 928 416 0
FLAG 1024 640 0
FLAG 240 736 0
FLAG 288 624 Isense
SYMBOL voltage -720 64 R0
WINDOW 123 0 0 Left 0
WINDOW 39 0 0 Left 0
SYMATTR InstName Vin
SYMATTR Value 40
SYMBOL ind2 -48 48 R0
SYMATTR InstName L4
SYMATTR Value 24.25µ
SYMATTR Type ind
SYMBOL ind2 -48 160 R180
WINDOW 0 36 80 Left 2
WINDOW 3 36 40 Left 2
SYMATTR InstName L3
SYMATTR Value 24.25µ
SYMATTR Type ind
SYMBOL res -384 64 R0
SYMATTR InstName R1
SYMATTR Value 408
SYMBOL schottky -288 304 R180
WINDOW 0 24 64 Left 2
WINDOW 3 24 0 Left 2
SYMATTR InstName D1
SYMATTR Value RBQ30NS100A
SYMATTR Description Diode
SYMATTR Type diode
SYMBOL res -160 432 R90
WINDOW 0 0 56 VBottom 2
WINDOW 3 32 56 VTop 2
SYMATTR InstName R4
SYMATTR Value 8.87
SYMBOL res 96 608 R90
WINDOW 0 0 56 VBottom 2
WINDOW 3 32 56 VTop 2
SYMATTR InstName R5
SYMATTR Value 1k
SYMBOL cap 128 656 R0
SYMATTR InstName C2
SYMATTR Value 470p
SYMBOL cap -896 592 M0
SYMATTR InstName C3
SYMATTR Value 100n
SYMBOL res -800 672 M90
WINDOW 0 0 56 VBottom 2
WINDOW 3 32 56 VTop 2
SYMATTR InstName R6
SYMATTR Value 10.7k
SYMBOL cap -512 592 M0
SYMATTR InstName C4
SYMATTR Value 1n
SYMBOL polcap 208 80 R0
WINDOW 3 24 56 Left 2
SYMATTR Value 660µ
SYMATTR InstName C5
SYMATTR Description Capacitor
SYMATTR Type cap
SYMATTR SpiceLine V=35 Irms=2.78 Rser=0.0173 Lser=7.212n
SYMBOL Optos\\PC817A 800 224 R0
SYMATTR InstName U2
SYMBOL ind -224 64 R270
WINDOW 0 32 56 VTop 2
WINDOW 3 5 56 VBottom 2
SYMATTR InstName L1
SYMATTR Value 0.215µ
SYMBOL ind 272 64 R270
WINDOW 0 32 56 VTop 2
WINDOW 3 5 56 VBottom 2
SYMATTR InstName L2
SYMATTR Value 2.2µ
SYMBOL cap 80 480 R0
SYMATTR InstName C8
SYMATTR Value 1µ
SYMATTR SpiceLine V=100 Irms=2.96 Rser=0.029149 Lser=0
SYMBOL polcap 400 80 R0
WINDOW 3 24 56 Left 2
SYMATTR Value 1000µ
SYMATTR InstName C9
SYMATTR Description Capacitor
SYMATTR Type cap
SYMATTR SpiceLine V=35 Irms=1.06 Rser=0.0442 Lser=7.087n
SYMBOL cap -272 80 R0
SYMATTR InstName C1
SYMATTR Value 317n
SYMATTR SpiceLine V=100 Irms=3.41 Rser=0.0261749 Lser=0
SYMBOL PowerProducts\\UC3845 -736 480 R0
SYMATTR InstName X1
SYMBOL ind 64 192 R270
WINDOW 0 32 56 VTop 2
WINDOW 3 5 56 VBottom 2
SYMATTR InstName L5
SYMATTR Value 0.215µ
SYMBOL schottky 80 64 R270
WINDOW 0 32 32 VTop 2
WINDOW 3 0 32 VBottom 2
SYMATTR InstName D2
SYMATTR Value RBQ30NS100A
SYMATTR Description Diode
SYMATTR Type diode
SYMBOL cap -624 80 R0
SYMATTR InstName C10
SYMATTR Value 4.7µ
SYMBOL nmos -112 368 R0
SYMATTR InstName M2
SYMATTR Value IRFR2607Z
SYMBOL res 512 48 R0
SYMATTR InstName R7
SYMATTR Value 2.4
SYMBOL res 80 352 R0
SYMATTR InstName R17
SYMATTR Value 300
SYMBOL res -80 624 R0
SYMATTR InstName R18
SYMATTR Value 50m
SYMBOL res -160 464 R0
SYMATTR InstName R19
SYMATTR Value 10k
SYMBOL cap -1056 448 R0
SYMATTR InstName C7
SYMATTR Value 1n
SYMBOL res -992 416 R0
SYMATTR InstName R2
SYMATTR Value 10k
SYMBOL voltage -816 64 R0
WINDOW 123 0 0 Left 0
WINDOW 39 0 0 Left 0
SYMATTR InstName V1
SYMATTR Value 15
SYMBOL cap 80 -32 R90
WINDOW 0 0 32 VBottom 2
WINDOW 3 32 32 VTop 2
SYMATTR InstName C13
SYMATTR Value 1µ
SYMATTR SpiceLine V=100 Irms=2.96 Rser=0.029149 Lser=0
SYMBOL res 208 -32 R90
WINDOW 0 0 56 VBottom 2
WINDOW 3 32 56 VTop 2
SYMATTR InstName R3
SYMATTR Value 2.2k
SYMBOL res 656 48 R0
SYMATTR InstName R8
SYMATTR Value 2.7k
SYMBOL zener 688 368 R180
WINDOW 0 24 64 Left 2
WINDOW 3 24 0 Left 2
SYMATTR InstName D3
SYMATTR Value TDZ10B
SYMATTR Description Diode
SYMATTR Type diode
SYMBOL res 912 288 R0
SYMATTR InstName R9
SYMATTR Value 2.7k
SYMBOL res 1008 288 R0
SYMATTR InstName R10
SYMATTR Value 2.2k
SYMBOL res 1008 400 R0
SYMATTR InstName R11
SYMATTR Value 2.8k
SYMBOL res 1008 512 R0
SYMATTR InstName R12
SYMATTR Value 2.7k
SYMBOL cap 224 656 R0
SYMATTR InstName C6
SYMATTR Value 470p
TEXT -824 -80 Left 2 !.tran 1
TEXT -96 32 Left 2 !K L3 L4 1
TEXT -576 -72 Left 2 ;FlyBusri 20-40V Closed-Loop Flyback Converter Simulation
